echo Project: Debugger

env MODPATH=$OBERON\debugger.prj
env OCOPT=+x
env LINKALSO
env LINK_IO
env LINK_FORM
