echo Project: Library

env MODPATH=$OBERON\library.prj
env OCOPT=+x
env LINKALSO
env LINK_IO
env LINK_FORM
