echo Project: Load time linking

env MODPATH=$OBERON\ltl.prj
env OCOPT=+x
env LINKALSO
env LINK_IO
env LINK_FORM
