echo Project: Tools

env MODPATH=$OBERON\tools.prj
env OCOPT=+x
env LINKALSO
env LINK_IO
env LINK_FORM
