echo Project: Tutorial

env MODPATH=$OBERON\tutorial.prj
env OCOPT=+x
env LINKALSO
env LINK_IO
env LINK_FORM
