LTLSTART=F:\CHATWIN\CHATWIN.APP
DEFSTART=CHATWIN.OBJ
LOADPATH=e:\oberon_i\obj
OBJPATH=e:\oberon_i\obj
SYMPATH=e:\oberon_i\sym
MODPATH=e:\oberon_i\ltl.prj
OCOPT=+x
OLOPT=-a-de:\oberon_i\bin\